3245
  -OEChem-12072321113D

 60 62  0     1  0  0  0  0  0999 V2000
    3.5563    1.5946    0.1613 O   0  0  0  0  0  0  0  0  0  0  0  0
   -5.8580   -2.1678    0.6291 O   0  0  0  0  0  0  0  0  0  0  0  0
   -1.3229   -1.0719    0.2087 N   0  0  0  0  0  0  0  0  0  0  0  0
    1.4348   -0.3188   -0.2231 N   0  0  0  0  0  0  0  0  0  0  0  0
   -0.4444   -0.7192    1.3307 C   0  0  0  0  0  0  0  0  0  0  0  0
   -0.9080   -0.3641   -1.0087 C   0  0  0  0  0  0  0  0  0  0  0  0
    1.0191   -1.0258    0.9945 C   0  0  0  0  0  0  0  0  0  0  0  0
    0.5556   -0.6695   -1.3453 C   0  0  0  0  0  0  0  0  0  0  0  0
   -2.7182   -0.7785    0.5298 C   0  0  0  0  0  0  0  0  0  0  0  0
    2.8297   -0.6143   -0.5444 C   0  0  0  0  0  0  0  0  0  0  0  0
   -3.6853   -1.6534   -0.2808 C   0  0  1  0  0  0  0  0  0  0  0  0
    3.7783    0.1972    0.3464 C   0  0  1  0  0  0  0  0  0  0  0  0
   -3.4292   -3.1488   -0.0626 C   0  0  0  0  0  0  0  0  0  0  0  0
    5.2272   -0.0978    0.0261 C   0  0  0  0  0  0  0  0  0  0  0  0
   -5.1213   -1.3199    0.1265 C   0  0  0  0  0  0  0  0  0  0  0  0
   -5.6471    0.0625   -0.0722 C   0  0  0  0  0  0  0  0  0  0  0  0
    5.8969    0.6583   -0.9361 C   0  0  0  0  0  0  0  0  0  0  0  0
    5.8933   -1.1264    0.6926 C   0  0  0  0  0  0  0  0  0  0  0  0
    4.0146    2.3421    1.2773 C   0  0  0  0  0  0  0  0  0  0  0  0
    7.2327    0.3858   -1.2315 C   0  0  0  0  0  0  0  0  0  0  0  0
    7.2292   -1.3986    0.3972 C   0  0  0  0  0  0  0  0  0  0  0  0
   -5.1639    0.8490   -1.1181 C   0  0  0  0  0  0  0  0  0  0  0  0
   -6.6223    0.5682    0.7877 C   0  0  0  0  0  0  0  0  0  0  0  0
    3.7544    3.8122    1.0265 C   0  0  0  0  0  0  0  0  0  0  0  0
    7.8987   -0.6426   -0.5648 C   0  0  0  0  0  0  0  0  0  0  0  0
   -5.6555    2.1410   -1.3039 C   0  0  0  0  0  0  0  0  0  0  0  0
   -7.1140    1.8601    0.6016 C   0  0  0  0  0  0  0  0  0  0  0  0
   -6.6305    2.6465   -0.4442 C   0  0  0  0  0  0  0  0  0  0  0  0
   -0.5508    0.3424    1.5923 H   0  0  0  0  0  0  0  0  0  0  0  0
   -0.7188   -1.3044    2.2171 H   0  0  0  0  0  0  0  0  0  0  0  0
   -1.0374    0.7211   -0.8964 H   0  0  0  0  0  0  0  0  0  0  0  0
   -1.5204   -0.6774   -1.8616 H   0  0  0  0  0  0  0  0  0  0  0  0
    1.1485   -2.1110    0.8818 H   0  0  0  0  0  0  0  0  0  0  0  0
    1.6214   -0.7149    1.8542 H   0  0  0  0  0  0  0  0  0  0  0  0
    0.8297   -0.0837   -2.2313 H   0  0  0  0  0  0  0  0  0  0  0  0
    0.6618   -1.7308   -1.6082 H   0  0  0  0  0  0  0  0  0  0  0  0
   -2.9258    0.2923    0.4187 H   0  0  0  0  0  0  0  0  0  0  0  0
   -2.9072   -0.9969    1.5911 H   0  0  0  0  0  0  0  0  0  0  0  0
    3.0419   -1.6899   -0.4838 H   0  0  0  0  0  0  0  0  0  0  0  0
    3.0249   -0.3165   -1.5843 H   0  0  0  0  0  0  0  0  0  0  0  0
   -3.5897   -1.4702   -1.3561 H   0  0  0  0  0  0  0  0  0  0  0  0
    3.6029   -0.0591    1.3988 H   0  0  0  0  0  0  0  0  0  0  0  0
   -2.4424   -3.4424   -0.4347 H   0  0  0  0  0  0  0  0  0  0  0  0
   -4.1703   -3.7547   -0.5963 H   0  0  0  0  0  0  0  0  0  0  0  0
   -3.4852   -3.4145    0.9990 H   0  0  0  0  0  0  0  0  0  0  0  0
    5.3990    1.4551   -1.4817 H   0  0  0  0  0  0  0  0  0  0  0  0
    5.3818   -1.7239    1.4425 H   0  0  0  0  0  0  0  0  0  0  0  0
    3.4718    2.0332    2.1782 H   0  0  0  0  0  0  0  0  0  0  0  0
    5.0863    2.1908    1.4439 H   0  0  0  0  0  0  0  0  0  0  0  0
    7.7535    0.9719   -1.9831 H   0  0  0  0  0  0  0  0  0  0  0  0
    7.7476   -2.1999    0.9156 H   0  0  0  0  0  0  0  0  0  0  0  0
   -4.4158    0.4848   -1.8148 H   0  0  0  0  0  0  0  0  0  0  0  0
   -7.0074   -0.0280    1.6107 H   0  0  0  0  0  0  0  0  0  0  0  0
    4.2785    4.1474    0.1253 H   0  0  0  0  0  0  0  0  0  0  0  0
    2.6872    3.9922    0.8597 H   0  0  0  0  0  0  0  0  0  0  0  0
    4.0863    4.4186    1.8738 H   0  0  0  0  0  0  0  0  0  0  0  0
    8.9384   -0.8553   -0.7956 H   0  0  0  0  0  0  0  0  0  0  0  0
   -5.2816    2.7526   -2.1198 H   0  0  0  0  0  0  0  0  0  0  0  0
   -7.8725    2.2545    1.2715 H   0  0  0  0  0  0  0  0  0  0  0  0
   -7.0136    3.6524   -0.5893 H   0  0  0  0  0  0  0  0  0  0  0  0
  1 12  1  0  0  0  0
  1 19  1  0  0  0  0
  2 15  2  0  0  0  0
  3  5  1  0  0  0  0
  3  6  1  0  0  0  0
  3  9  1  0  0  0  0
  4  7  1  0  0  0  0
  4  8  1  0  0  0  0
  4 10  1  0  0  0  0
  5  7  1  0  0  0  0
  5 29  1  0  0  0  0
  5 30  1  0  0  0  0
  6  8  1  0  0  0  0
  6 31  1  0  0  0  0
  6 32  1  0  0  0  0
  7 33  1  0  0  0  0
  7 34  1  0  0  0  0
  8 35  1  0  0  0  0
  8 36  1  0  0  0  0
  9 11  1  0  0  0  0
  9 37  1  0  0  0  0
  9 38  1  0  0  0  0
 10 12  1  0  0  0  0
 10 39  1  0  0  0  0
 10 40  1  0  0  0  0
 11 13  1  0  0  0  0
 11 15  1  0  0  0  0
 11 41  1  0  0  0  0
 12 14  1  0  0  0  0
 12 42  1  0  0  0  0
 13 43  1  0  0  0  0
 13 44  1  0  0  0  0
 13 45  1  0  0  0  0
 14 17  2  0  0  0  0
 14 18  1  0  0  0  0
 15 16  1  0  0  0  0
 16 22  2  0  0  0  0
 16 23  1  0  0  0  0
 17 20  1  0  0  0  0
 17 46  1  0  0  0  0
 18 21  2  0  0  0  0
 18 47  1  0  0  0  0
 19 24  1  0  0  0  0
 19 48  1  0  0  0  0
 19 49  1  0  0  0  0
 20 25  2  0  0  0  0
 20 50  1  0  0  0  0
 21 25  1  0  0  0  0
 21 51  1  0  0  0  0
 22 26  1  0  0  0  0
 22 52  1  0  0  0  0
 23 27  2  0  0  0  0
 23 53  1  0  0  0  0
 24 54  1  0  0  0  0
 24 55  1  0  0  0  0
 24 56  1  0  0  0  0
 25 57  1  0  0  0  0
 26 28  2  0  0  0  0
 26 58  1  0  0  0  0
 27 28  1  0  0  0  0
 27 59  1  0  0  0  0
 28 60  1  0  0  0  0
M  END
> <PUBCHEM_COMPOUND_CID>
3245

> <PUBCHEM_CONFORMER_RMSD>
1.2

> <PUBCHEM_CONFORMER_DIVERSEORDER>
1
47
139
52
25
92
34
73
93
102
98
136
123
70
129
36
122
99
22
7
116
81
84
115
97
91
31
113
4
41
46
35
23
131
88
114
60
17
75
44
56
26
133
107
53
119
126
67
33
11
63
110
105
49
101
111
45
109
27
9
128
21
54
87
86
19
138
106
12
66
40
103
29
69
90
100
72
24
125
50
18
43
95
51
59
104
120
134
112
76
132
28
74
108
3
48
39
118
82
38
14
124
141
94
61
8
71
85
121
5
20
78
10
30
137
79
127
83
140
64
57
96
68
55
62
130
42
135
37
117
58
65
16
15
77
6
32
89
80
13
2

> <PUBCHEM_MMFF94_PARTIAL_CHARGES>
36
1 -0.56
10 0.27
11 0.06
12 0.42
14 -0.14
15 0.42
16 0.09
17 -0.15
18 -0.15
19 0.28
2 -0.57
20 -0.15
21 -0.15
22 -0.15
23 -0.15
25 -0.15
26 -0.15
27 -0.15
28 -0.15
3 -0.81
4 -0.81
46 0.15
47 0.15
5 0.27
50 0.15
51 0.15
52 0.15
53 0.15
57 0.15
58 0.15
59 0.15
6 0.27
60 0.15
7 0.27
8 0.27
9 0.27

> <PUBCHEM_EFFECTIVE_ROTOR_COUNT>
10.2

> <PUBCHEM_PHARMACOPHORE_FEATURES>
8
1 1 acceptor
1 13 hydrophobe
1 2 acceptor
1 3 cation
1 4 cation
6 14 17 18 20 21 25 rings
6 16 22 23 26 27 28 rings
6 3 4 5 6 7 8 rings

> <PUBCHEM_HEAVY_ATOM_COUNT>
28

> <PUBCHEM_ATOM_DEF_STEREO_COUNT>
0

> <PUBCHEM_ATOM_UDEF_STEREO_COUNT>
2

> <PUBCHEM_BOND_DEF_STEREO_COUNT>
0

> <PUBCHEM_BOND_UDEF_STEREO_COUNT>
0

> <PUBCHEM_ISOTOPIC_ATOM_COUNT>
0

> <PUBCHEM_COMPONENT_COUNT>
1

> <PUBCHEM_CACTVS_TAUTO_COUNT>
2

> <PUBCHEM_CONFORMER_ID>
00000CAD00000001

> <PUBCHEM_MMFF94_ENERGY>
70.8497

> <PUBCHEM_FEATURE_SELFOVERLAP>
40.598

> <PUBCHEM_SHAPE_FINGERPRINT>
10 15 17895198775500537985
100830 39 18261955150520706597
10299344 5 17894069602501853974
10554248 39 16487258802757641196
10674148 151 17894348870387166082
10763959 59 18410575123845896408
10864689 126 18263913368093267837
11135926 11 16343712023644246055
11456790 92 18113896044869969392
11724838 91 11239994556403447930
12082328 90 18333733533093083143
12664476 115 18410856560415710841
12730499 353 11097851892140297200
13914758 101 18410014316827597666
14849402 71 17313681449997645021
14856354 85 16009040492649040251
14933364 13 18334014999257708950
15142383 8 18273211985552752278
15183329 4 18273217482203621072
15461852 350 18411694405746005487
15537594 2 13407071531089521208
21033648 29 18115020922479805352
21150785 3 11959723863437597223
21315763 28 18341893039121373739
21756936 100 17894353268360272419
22149856 69 10953731149869816492
23522609 53 17459208351079368100
23559900 14 18272931630819194762
23569914 2 17622954258703509641
249057 3 18201718457437056030
2838139 119 18343295964476869885
4073 2 17822299006431366138
4098825 35 18333450945682237338
4144715 1 18264490774378158099
4340502 62 8070034359356376256
54039377 194 12319437919635458173
5758199 1 17095245808529024194
5969126 39 14836125420935867339
59755656 520 17167863071408310115
6086070 43 18343017804971890232

> <PUBCHEM_SHAPE_MULTIPOLES>
554.53
24.47
2.98
1.23
5.59
1.83
-0.08
5.74
-2.11
-2.32
0.7
0.27
0.32
1.41

> <PUBCHEM_SHAPE_SELFOVERLAP>
1153.092

> <PUBCHEM_SHAPE_VOLUME>
315

> <PUBCHEM_COORDINATE_TYPE>
2
5
10

$$$$
516
  -OEChem-12072321123D

 32 31  0     1  0  0  0  0  0999 V2000
    1.9631   -1.5521    0.2214 P   0  0  2  0  0  0  0  0  0  0  0  0
    3.4399    0.9594   -0.1852 P   0  0  0  0  0  0  0  0  0  0  0  0
   -3.3721    1.7416    1.0859 O   0  0  0  0  0  0  0  0  0  0  0  0
    0.6738   -0.8185    0.8605 O   0  0  0  0  0  0  0  0  0  0  0  0
    2.7009   -0.4028   -0.6437 O   0  0  0  0  0  0  0  0  0  0  0  0
   -3.4497   -1.9339   -1.0092 O   0  0  0  0  0  0  0  0  0  0  0  0
   -4.6346   -0.8120    0.5710 O   0  0  0  0  0  0  0  0  0  0  0  0
    1.3527   -2.5336   -0.9105 O   0  0  0  0  0  0  0  0  0  0  0  0
    2.8513   -2.2360    1.2201 O   0  0  0  0  0  0  0  0  0  0  0  0
    4.7256    0.4279    0.6374 O   0  0  0  0  0  0  0  0  0  0  0  0
    4.0758    1.5134   -1.5641 O   0  0  0  0  0  0  0  0  0  0  0  0
    2.5638    1.9297    0.5506 O   0  0  0  0  0  0  0  0  0  0  0  0
   -2.4260    1.2625    0.1200 C   0  0  1  0  0  0  0  0  0  0  0  0
   -1.3513    0.4563    0.8768 C   0  0  0  0  0  0  0  0  0  0  0  0
   -3.2027    0.4418   -0.9231 C   0  0  0  0  0  0  0  0  0  0  0  0
   -1.8231    2.4996   -0.5583 C   0  0  0  0  0  0  0  0  0  0  0  0
   -0.2435   -0.1351    0.0138 C   0  0  0  0  0  0  0  0  0  0  0  0
   -3.8439   -0.8085   -0.3635 C   0  0  0  0  0  0  0  0  0  0  0  0
   -1.8238   -0.3453    1.4604 H   0  0  0  0  0  0  0  0  0  0  0  0
   -0.8947    1.0938    1.6475 H   0  0  0  0  0  0  0  0  0  0  0  0
   -4.0198    1.0353   -1.3530 H   0  0  0  0  0  0  0  0  0  0  0  0
   -2.5461    0.1617   -1.7555 H   0  0  0  0  0  0  0  0  0  0  0  0
    0.2918    0.6475   -0.5290 H   0  0  0  0  0  0  0  0  0  0  0  0
   -0.6524   -0.8481   -0.7072 H   0  0  0  0  0  0  0  0  0  0  0  0
   -2.6135    3.1468   -0.9564 H   0  0  0  0  0  0  0  0  0  0  0  0
   -1.1538    2.2348   -1.3824 H   0  0  0  0  0  0  0  0  0  0  0  0
   -1.2631    3.1066    0.1622 H   0  0  0  0  0  0  0  0  0  0  0  0
   -2.8931    2.2908    1.7299 H   0  0  0  0  0  0  0  0  0  0  0  0
   -3.8715   -2.7370   -0.6359 H   0  0  0  0  0  0  0  0  0  0  0  0
    0.9707   -3.3943   -0.6359 H   0  0  0  0  0  0  0  0  0  0  0  0
    5.3006    1.0792    1.0926 H   0  0  0  0  0  0  0  0  0  0  0  0
    4.5129    2.3915   -1.5663 H   0  0  0  0  0  0  0  0  0  0  0  0
  1  4  1  0  0  0  0
  1  5  1  0  0  0  0
  1  8  1  0  0  0  0
  1  9  2  0  0  0  0
  2  5  1  0  0  0  0
  2 10  1  0  0  0  0
  2 11  1  0  0  0  0
  2 12  2  0  0  0  0
  3 13  1  0  0  0  0
  3 28  1  0  0  0  0
  4 17  1  0  0  0  0
  6 18  1  0  0  0  0
  6 29  1  0  0  0  0
  7 18  2  0  0  0  0
  8 30  1  0  0  0  0
 10 31  1  0  0  0  0
 11 32  1  0  0  0  0
 13 14  1  0  0  0  0
 13 15  1  0  0  0  0
 13 16  1  0  0  0  0
 14 17  1  0  0  0  0
 14 19  1  0  0  0  0
 14 20  1  0  0  0  0
 15 18  1  0  0  0  0
 15 21  1  0  0  0  0
 15 22  1  0  0  0  0
 16 25  1  0  0  0  0
 16 26  1  0  0  0  0
 16 27  1  0  0  0  0
 17 23  1  0  0  0  0
 17 24  1  0  0  0  0
M  END
> <PUBCHEM_COMPOUND_CID>
516

> <PUBCHEM_CONFORMER_RMSD>
0.8

> <PUBCHEM_CONFORMER_DIVERSEORDER>
1
53
303
380
367
13
150
202
26
267
259
321
240
185
14
67
97
286
254
156
10
113
348
32
359
220
51
33
260
287
80
295
208
9
318
210
189
19
40
347
378
124
182
152
66
131
276
15
24
364
345
63
279
234
175
157
180
118
277
309
71
3
211
87
340
204
249
72
314
155
294
111
6
332
237
89
195
349
38
313
316
300
16
272
140
381
201
265
166
73
308
74
179
235
126
247
233
278
304
37
344
284
366
183
129
27
141
106
365
46
377
299
148
283
55
333
224
123
34
227
368
23
64
68
238
135
215
29
61
363
250
41
322
186
76
248
209
310
153
336
184
119
43
107
382
328
257
236
115
50
311
56
144
354
146
35
117
139
199
239
45
188
172
352
2
262
171
320
273
39
225
91
212
162
270
25
242
4
350
110
103
170
346
376
11
214
58
291
20
151
312
5
221
132
355
77
371
331
258
226
280
22
256
133
181
264
317
243
125
373
319
86
229
8
361
17
338
18
213
21
82
138
293
342
173
70
360
48
285
54
205
197
315
275
85
306
330
251
94
47
323
327
65
12
375
109
59
174
263
207
374
334
193
372
28
93
176
99
288
206
31
104
120
52
298
145
69
281
252
178
187
343
116
244
112
30
370
128
92
62
198
102
358
142
161
154
149
194
57
60
297
79
296
268
83
325
147
337
49
42
230
105
301
158
222
137
177
160
203
339
190
98
351
101
88
163
191
329
369
362
168
307
216
114
253
223
292
78
36
305
75
219
169
81
217
335
241
245
231
127
290
255
302
7
121
282
357
228
84
134
324
261
136
341
143
271
165
326
100
130
167
122
108
192
356
353
159
274
96
218
266
379
44
95
90
232
269
246
200
164
289
196

> <PUBCHEM_MMFF94_PARTIAL_CHARGES>
21
1 1.51
10 -0.77
11 -0.77
12 -0.7
13 0.28
15 0.06
17 0.28
18 0.66
2 1.51
28 0.4
29 0.5
3 -0.68
30 0.5
31 0.5
32 0.5
4 -0.55
5 -0.54
6 -0.65
7 -0.57
8 -0.77
9 -0.7

> <PUBCHEM_EFFECTIVE_ROTOR_COUNT>
8

> <PUBCHEM_PHARMACOPHORE_FEATURES>
11
1 10 acceptor
1 11 acceptor
1 12 acceptor
1 3 acceptor
1 3 donor
1 6 acceptor
1 7 acceptor
1 8 acceptor
1 9 acceptor
3 6 7 18 anion
4 2 10 11 12 anion

> <PUBCHEM_HEAVY_ATOM_COUNT>
18

> <PUBCHEM_ATOM_DEF_STEREO_COUNT>
0

> <PUBCHEM_ATOM_UDEF_STEREO_COUNT>
1

> <PUBCHEM_BOND_DEF_STEREO_COUNT>
0

> <PUBCHEM_BOND_UDEF_STEREO_COUNT>
0

> <PUBCHEM_ISOTOPIC_ATOM_COUNT>
0

> <PUBCHEM_COMPONENT_COUNT>
1

> <PUBCHEM_CACTVS_TAUTO_COUNT>
1

> <PUBCHEM_CONFORMER_ID>
0000020400000001

> <PUBCHEM_MMFF94_ENERGY>
-23.4459

> <PUBCHEM_FEATURE_SELFOVERLAP>
55.934

> <PUBCHEM_SHAPE_FINGERPRINT>
10980938 120 18338518543382878824
11715629 250 18337391526383742692
11759241 127 18260268555227668245
12173636 292 18057885741150651241
124424 183 11674879987415482335
128620 24 17989487433014394208
12932764 1 17970637285524762747
17349148 13 17603583062369298562
17492 89 18335979749328172307
18186145 218 18262803938926153166
19050596 39 18338233760959441219
21501502 16 18338515244504961417
21524375 3 18408886269779894306
21618674 54 18341891840561448791
23402539 116 17967806154504696772
23557571 272 18131362898624738364
23559900 14 18266446616564525682
312423 11 18337115566092247155
474 4 18040441026812809844
58051976 100 18120655734572071791
58051976 378 18272646857201917375
6333272 397 18187087307919993100

> <PUBCHEM_SHAPE_MULTIPOLES>
319.44
9.07
2.59
1.13
0.82
0.24
0.09
-0.6
0.47
0.41
0.25
0.19
0
-0.96

> <PUBCHEM_SHAPE_SELFOVERLAP>
590.528

> <PUBCHEM_SHAPE_VOLUME>
202.4

> <PUBCHEM_COORDINATE_TYPE>
2
5
10

$$$$
3245
  -OEChem-12102320483D

 60 62  0     1  0  0  0  0  0999 V2000
    3.5563    1.5946    0.1613 O   0  0  0  0  0  0  0  0  0  0  0  0
   -5.8580   -2.1678    0.6291 O   0  0  0  0  0  0  0  0  0  0  0  0
   -1.3229   -1.0719    0.2087 N   0  0  0  0  0  0  0  0  0  0  0  0
    1.4348   -0.3188   -0.2231 N   0  0  0  0  0  0  0  0  0  0  0  0
   -0.4444   -0.7192    1.3307 C   0  0  0  0  0  0  0  0  0  0  0  0
   -0.9080   -0.3641   -1.0087 C   0  0  0  0  0  0  0  0  0  0  0  0
    1.0191   -1.0258    0.9945 C   0  0  0  0  0  0  0  0  0  0  0  0
    0.5556   -0.6695   -1.3453 C   0  0  0  0  0  0  0  0  0  0  0  0
   -2.7182   -0.7785    0.5298 C   0  0  0  0  0  0  0  0  0  0  0  0
    2.8297   -0.6143   -0.5444 C   0  0  0  0  0  0  0  0  0  0  0  0
   -3.6853   -1.6534   -0.2808 C   0  0  1  0  0  0  0  0  0  0  0  0
    3.7783    0.1972    0.3464 C   0  0  1  0  0  0  0  0  0  0  0  0
   -3.4292   -3.1488   -0.0626 C   0  0  0  0  0  0  0  0  0  0  0  0
    5.2272   -0.0978    0.0261 C   0  0  0  0  0  0  0  0  0  0  0  0
   -5.1213   -1.3199    0.1265 C   0  0  0  0  0  0  0  0  0  0  0  0
   -5.6471    0.0625   -0.0722 C   0  0  0  0  0  0  0  0  0  0  0  0
    5.8969    0.6583   -0.9361 C   0  0  0  0  0  0  0  0  0  0  0  0
    5.8933   -1.1264    0.6926 C   0  0  0  0  0  0  0  0  0  0  0  0
    4.0146    2.3421    1.2773 C   0  0  0  0  0  0  0  0  0  0  0  0
    7.2327    0.3858   -1.2315 C   0  0  0  0  0  0  0  0  0  0  0  0
    7.2292   -1.3986    0.3972 C   0  0  0  0  0  0  0  0  0  0  0  0
   -5.1639    0.8490   -1.1181 C   0  0  0  0  0  0  0  0  0  0  0  0
   -6.6223    0.5682    0.7877 C   0  0  0  0  0  0  0  0  0  0  0  0
    3.7544    3.8122    1.0265 C   0  0  0  0  0  0  0  0  0  0  0  0
    7.8987   -0.6426   -0.5648 C   0  0  0  0  0  0  0  0  0  0  0  0
   -5.6555    2.1410   -1.3039 C   0  0  0  0  0  0  0  0  0  0  0  0
   -7.1140    1.8601    0.6016 C   0  0  0  0  0  0  0  0  0  0  0  0
   -6.6305    2.6465   -0.4442 C   0  0  0  0  0  0  0  0  0  0  0  0
   -0.5508    0.3424    1.5923 H   0  0  0  0  0  0  0  0  0  0  0  0
   -0.7188   -1.3044    2.2171 H   0  0  0  0  0  0  0  0  0  0  0  0
   -1.0374    0.7211   -0.8964 H   0  0  0  0  0  0  0  0  0  0  0  0
   -1.5204   -0.6774   -1.8616 H   0  0  0  0  0  0  0  0  0  0  0  0
    1.1485   -2.1110    0.8818 H   0  0  0  0  0  0  0  0  0  0  0  0
    1.6214   -0.7149    1.8542 H   0  0  0  0  0  0  0  0  0  0  0  0
    0.8297   -0.0837   -2.2313 H   0  0  0  0  0  0  0  0  0  0  0  0
    0.6618   -1.7308   -1.6082 H   0  0  0  0  0  0  0  0  0  0  0  0
   -2.9258    0.2923    0.4187 H   0  0  0  0  0  0  0  0  0  0  0  0
   -2.9072   -0.9969    1.5911 H   0  0  0  0  0  0  0  0  0  0  0  0
    3.0419   -1.6899   -0.4838 H   0  0  0  0  0  0  0  0  0  0  0  0
    3.0249   -0.3165   -1.5843 H   0  0  0  0  0  0  0  0  0  0  0  0
   -3.5897   -1.4702   -1.3561 H   0  0  0  0  0  0  0  0  0  0  0  0
    3.6029   -0.0591    1.3988 H   0  0  0  0  0  0  0  0  0  0  0  0
   -2.4424   -3.4424   -0.4347 H   0  0  0  0  0  0  0  0  0  0  0  0
   -4.1703   -3.7547   -0.5963 H   0  0  0  0  0  0  0  0  0  0  0  0
   -3.4852   -3.4145    0.9990 H   0  0  0  0  0  0  0  0  0  0  0  0
    5.3990    1.4551   -1.4817 H   0  0  0  0  0  0  0  0  0  0  0  0
    5.3818   -1.7239    1.4425 H   0  0  0  0  0  0  0  0  0  0  0  0
    3.4718    2.0332    2.1782 H   0  0  0  0  0  0  0  0  0  0  0  0
    5.0863    2.1908    1.4439 H   0  0  0  0  0  0  0  0  0  0  0  0
    7.7535    0.9719   -1.9831 H   0  0  0  0  0  0  0  0  0  0  0  0
    7.7476   -2.1999    0.9156 H   0  0  0  0  0  0  0  0  0  0  0  0
   -4.4158    0.4848   -1.8148 H   0  0  0  0  0  0  0  0  0  0  0  0
   -7.0074   -0.0280    1.6107 H   0  0  0  0  0  0  0  0  0  0  0  0
    4.2785    4.1474    0.1253 H   0  0  0  0  0  0  0  0  0  0  0  0
    2.6872    3.9922    0.8597 H   0  0  0  0  0  0  0  0  0  0  0  0
    4.0863    4.4186    1.8738 H   0  0  0  0  0  0  0  0  0  0  0  0
    8.9384   -0.8553   -0.7956 H   0  0  0  0  0  0  0  0  0  0  0  0
   -5.2816    2.7526   -2.1198 H   0  0  0  0  0  0  0  0  0  0  0  0
   -7.8725    2.2545    1.2715 H   0  0  0  0  0  0  0  0  0  0  0  0
   -7.0136    3.6524   -0.5893 H   0  0  0  0  0  0  0  0  0  0  0  0
  1 12  1  0  0  0  0
  1 19  1  0  0  0  0
  2 15  2  0  0  0  0
  3  5  1  0  0  0  0
  3  6  1  0  0  0  0
  3  9  1  0  0  0  0
  4  7  1  0  0  0  0
  4  8  1  0  0  0  0
  4 10  1  0  0  0  0
  5  7  1  0  0  0  0
  5 29  1  0  0  0  0
  5 30  1  0  0  0  0
  6  8  1  0  0  0  0
  6 31  1  0  0  0  0
  6 32  1  0  0  0  0
  7 33  1  0  0  0  0
  7 34  1  0  0  0  0
  8 35  1  0  0  0  0
  8 36  1  0  0  0  0
  9 11  1  0  0  0  0
  9 37  1  0  0  0  0
  9 38  1  0  0  0  0
 10 12  1  0  0  0  0
 10 39  1  0  0  0  0
 10 40  1  0  0  0  0
 11 13  1  0  0  0  0
 11 15  1  0  0  0  0
 11 41  1  0  0  0  0
 12 14  1  0  0  0  0
 12 42  1  0  0  0  0
 13 43  1  0  0  0  0
 13 44  1  0  0  0  0
 13 45  1  0  0  0  0
 14 17  2  0  0  0  0
 14 18  1  0  0  0  0
 15 16  1  0  0  0  0
 16 22  2  0  0  0  0
 16 23  1  0  0  0  0
 17 20  1  0  0  0  0
 17 46  1  0  0  0  0
 18 21  2  0  0  0  0
 18 47  1  0  0  0  0
 19 24  1  0  0  0  0
 19 48  1  0  0  0  0
 19 49  1  0  0  0  0
 20 25  2  0  0  0  0
 20 50  1  0  0  0  0
 21 25  1  0  0  0  0
 21 51  1  0  0  0  0
 22 26  1  0  0  0  0
 22 52  1  0  0  0  0
 23 27  2  0  0  0  0
 23 53  1  0  0  0  0
 24 54  1  0  0  0  0
 24 55  1  0  0  0  0
 24 56  1  0  0  0  0
 25 57  1  0  0  0  0
 26 28  2  0  0  0  0
 26 58  1  0  0  0  0
 27 28  1  0  0  0  0
 27 59  1  0  0  0  0
 28 60  1  0  0  0  0
M  END
> <PUBCHEM_COMPOUND_CID>
3245

> <PUBCHEM_CONFORMER_RMSD>
1.2

> <PUBCHEM_CONFORMER_DIVERSEORDER>
1
47
139
52
25
92
34
73
93
102
98
136
123
70
129
36
122
99
22
7
116
81
84
115
97
91
31
113
4
41
46
35
23
131
88
114
60
17
75
44
56
26
133
107
53
119
126
67
33
11
63
110
105
49
101
111
45
109
27
9
128
21
54
87
86
19
138
106
12
66
40
103
29
69
90
100
72
24
125
50
18
43
95
51
59
104
120
134
112
76
132
28
74
108
3
48
39
118
82
38
14
124
141
94
61
8
71
85
121
5
20
78
10
30
137
79
127
83
140
64
57
96
68
55
62
130
42
135
37
117
58
65
16
15
77
6
32
89
80
13
2

> <PUBCHEM_MMFF94_PARTIAL_CHARGES>
36
1 -0.56
10 0.27
11 0.06
12 0.42
14 -0.14
15 0.42
16 0.09
17 -0.15
18 -0.15
19 0.28
2 -0.57
20 -0.15
21 -0.15
22 -0.15
23 -0.15
25 -0.15
26 -0.15
27 -0.15
28 -0.15
3 -0.81
4 -0.81
46 0.15
47 0.15
5 0.27
50 0.15
51 0.15
52 0.15
53 0.15
57 0.15
58 0.15
59 0.15
6 0.27
60 0.15
7 0.27
8 0.27
9 0.27

> <PUBCHEM_EFFECTIVE_ROTOR_COUNT>
10.2

> <PUBCHEM_PHARMACOPHORE_FEATURES>
8
1 1 acceptor
1 13 hydrophobe
1 2 acceptor
1 3 cation
1 4 cation
6 14 17 18 20 21 25 rings
6 16 22 23 26 27 28 rings
6 3 4 5 6 7 8 rings

> <PUBCHEM_HEAVY_ATOM_COUNT>
28

> <PUBCHEM_ATOM_DEF_STEREO_COUNT>
0

> <PUBCHEM_ATOM_UDEF_STEREO_COUNT>
2

> <PUBCHEM_BOND_DEF_STEREO_COUNT>
0

> <PUBCHEM_BOND_UDEF_STEREO_COUNT>
0

> <PUBCHEM_ISOTOPIC_ATOM_COUNT>
0

> <PUBCHEM_COMPONENT_COUNT>
1

> <PUBCHEM_CACTVS_TAUTO_COUNT>
2

> <PUBCHEM_CONFORMER_ID>
00000CAD00000001

> <PUBCHEM_MMFF94_ENERGY>
70.8497

> <PUBCHEM_FEATURE_SELFOVERLAP>
40.598

> <PUBCHEM_SHAPE_FINGERPRINT>
10 15 17895198775500537985
100830 39 18261955150520706597
10299344 5 17894069602501853974
10554248 39 16487258802757641196
10674148 151 17894348870387166082
10763959 59 18410575123845896408
10864689 126 18263913368093267837
11135926 11 16343712023644246055
11456790 92 18113896044869969392
11724838 91 11239994556403447930
12082328 90 18333733533093083143
12664476 115 18410856560415710841
12730499 353 11097851892140297200
13914758 101 18410014316827597666
14849402 71 17313681449997645021
14856354 85 16009040492649040251
14933364 13 18334014999257708950
15142383 8 18273211985552752278
15183329 4 18273217482203621072
15461852 350 18411694405746005487
15537594 2 13407071531089521208
21033648 29 18115020922479805352
21150785 3 11959723863437597223
21315763 28 18341893039121373739
21756936 100 17894353268360272419
22149856 69 10953731149869816492
23522609 53 17459208351079368100
23559900 14 18272931630819194762
23569914 2 17622954258703509641
249057 3 18201718457437056030
2838139 119 18343295964476869885
4073 2 17822299006431366138
4098825 35 18333450945682237338
4144715 1 18264490774378158099
4340502 62 8070034359356376256
54039377 194 12319437919635458173
5758199 1 17095245808529024194
5969126 39 14836125420935867339
59755656 520 17167863071408310115
6086070 43 18343017804971890232

> <PUBCHEM_SHAPE_MULTIPOLES>
554.53
24.47
2.98
1.23
5.59
1.83
-0.08
5.74
-2.11
-2.32
0.7
0.27
0.32
1.41

> <PUBCHEM_SHAPE_SELFOVERLAP>
1153.092

> <PUBCHEM_SHAPE_VOLUME>
315

> <PUBCHEM_COORDINATE_TYPE>
2
5
10

$$$$
453
  -OEChem-12102320493D

 26 25  0     1  0  0  0  0  0999 V2000
   -0.6269    1.5161    0.8251 O   0  0  0  0  0  0  0  0  0  0  0  0
    0.6150   -1.5137   -0.7871 O   0  0  0  0  0  0  0  0  0  0  0  0
   -2.1325   -0.8719    1.1687 O   0  0  0  0  0  0  0  0  0  0  0  0
    2.1247    0.8664   -1.1692 O   0  0  0  0  0  0  0  0  0  0  0  0
   -4.3410   -0.1860   -0.3727 O   0  0  0  0  0  0  0  0  0  0  0  0
    4.3622    0.1580    0.2936 O   0  0  0  0  0  0  0  0  0  0  0  0
   -0.6034    0.4605   -0.1352 C   0  0  1  0  0  0  0  0  0  0  0  0
    0.6019   -0.4476    0.1616 C   0  0  2  0  0  0  0  0  0  0  0  0
   -1.9554   -0.2809   -0.1251 C   0  0  2  0  0  0  0  0  0  0  0  0
    1.9554    0.2907    0.1324 C   0  0  1  0  0  0  0  0  0  0  0  0
   -3.1642    0.6182   -0.3749 C   0  0  0  0  0  0  0  0  0  0  0  0
    3.1642   -0.6098    0.3827 C   0  0  0  0  0  0  0  0  0  0  0  0
   -0.4849    0.9184   -1.1243 H   0  0  0  0  0  0  0  0  0  0  0  0
    0.4835   -0.8894    1.1590 H   0  0  0  0  0  0  0  0  0  0  0  0
   -1.9452   -1.1003   -0.8527 H   0  0  0  0  0  0  0  0  0  0  0  0
    1.9613    1.1205    0.8471 H   0  0  0  0  0  0  0  0  0  0  0  0
   -3.0922    1.1341   -1.3370 H   0  0  0  0  0  0  0  0  0  0  0  0
   -3.2826    1.3606    0.4202 H   0  0  0  0  0  0  0  0  0  0  0  0
    3.2463   -1.3950   -0.3746 H   0  0  0  0  0  0  0  0  0  0  0  0
    3.1178   -1.0775    1.3708 H   0  0  0  0  0  0  0  0  0  0  0  0
   -0.7804    1.1163    1.6983 H   0  0  0  0  0  0  0  0  0  0  0  0
    1.1971   -2.2111   -0.4417 H   0  0  0  0  0  0  0  0  0  0  0  0
   -2.9765   -1.3550    1.1549 H   0  0  0  0  0  0  0  0  0  0  0  0
    2.0857    0.1440   -1.8194 H   0  0  0  0  0  0  0  0  0  0  0  0
   -4.2584   -0.8270   -1.0991 H   0  0  0  0  0  0  0  0  0  0  0  0
    4.3149    0.8513    0.9738 H   0  0  0  0  0  0  0  0  0  0  0  0
  1  7  1  0  0  0  0
  1 21  1  0  0  0  0
  2  8  1  0  0  0  0
  2 22  1  0  0  0  0
  3  9  1  0  0  0  0
  3 23  1  0  0  0  0
  4 10  1  0  0  0  0
  4 24  1  0  0  0  0
  5 11  1  0  0  0  0
  5 25  1  0  0  0  0
  6 12  1  0  0  0  0
  6 26  1  0  0  0  0
  7  8  1  0  0  0  0
  7  9  1  0  0  0  0
  7 13  1  0  0  0  0
  8 10  1  0  0  0  0
  8 14  1  0  0  0  0
  9 11  1  0  0  0  0
  9 15  1  0  0  0  0
 10 12  1  0  0  0  0
 10 16  1  0  0  0  0
 11 17  1  0  0  0  0
 11 18  1  0  0  0  0
 12 19  1  0  0  0  0
 12 20  1  0  0  0  0
M  END
> <PUBCHEM_COMPOUND_CID>
453

> <PUBCHEM_CONFORMER_RMSD>
0.6

> <PUBCHEM_CONFORMER_DIVERSEORDER>
8
87
31
2
21
137
129
211
16
204
4
130
17
50
202
12
5
138
215
15
99
69
161
58
46
214
107
192
56
203
39
166
142
119
90
71
114
145
144
65
200
170
77
132
209
33
19
45
172
68
188
147
48
40
57
183
151
127
84
28
72
64
155
100
176
24
118
36
124
11
164
1
75
63
193
159
169
156
103
180
91
60
123
165
117
101
179
34
44
93
22
82
168
205
198
150
97
140
149
212
187
29
171
62
6
86
3
88
181
173
122
30
115
178
23
32
104
154
174
74
105
81
175
139
121
83
78
190
102
125
42
134
194
59
210
167
148
7
196
38
37
163
20
66
76
96
10
54
43
27
120
184
191
26
128
13
109
80
213
162
41
70
206
152
35
153
94
143
47
133
9
55
208
189
98
49
160
131
18
110
79
14
112
89
111
61
126
146
108
141
197
53
51
135
207
158
116
113
92
182
106
136
67
52
85
216
199
201
195
25
177
95
185
157
73
186

> <PUBCHEM_MMFF94_PARTIAL_CHARGES>
18
1 -0.68
10 0.28
11 0.28
12 0.28
2 -0.68
21 0.4
22 0.4
23 0.4
24 0.4
25 0.4
26 0.4
3 -0.68
4 -0.68
5 -0.68
6 -0.68
7 0.28
8 0.28
9 0.28

> <PUBCHEM_EFFECTIVE_ROTOR_COUNT>
5

> <PUBCHEM_PHARMACOPHORE_FEATURES>
12
1 1 acceptor
1 1 donor
1 2 acceptor
1 2 donor
1 3 acceptor
1 3 donor
1 4 acceptor
1 4 donor
1 5 acceptor
1 5 donor
1 6 acceptor
1 6 donor

> <PUBCHEM_HEAVY_ATOM_COUNT>
12

> <PUBCHEM_ATOM_DEF_STEREO_COUNT>
0

> <PUBCHEM_ATOM_UDEF_STEREO_COUNT>
4

> <PUBCHEM_BOND_DEF_STEREO_COUNT>
0

> <PUBCHEM_BOND_UDEF_STEREO_COUNT>
0

> <PUBCHEM_ISOTOPIC_ATOM_COUNT>
0

> <PUBCHEM_COMPONENT_COUNT>
1

> <PUBCHEM_CACTVS_TAUTO_COUNT>
1

> <PUBCHEM_CONFORMER_ID>
000001C500000008

> <PUBCHEM_MMFF94_ENERGY>
26.9434

> <PUBCHEM_FEATURE_SELFOVERLAP>
60.932

> <PUBCHEM_SHAPE_FINGERPRINT>
10219947 1 18413107247415706302
11062470 55 18114178622867199729
124424 183 17821445759437206921
14325111 11 17894916264671726940
14993402 34 17418084434473125141
15775835 57 17847055580103187262
16945 1 18059307520752615435
20201158 50 18408323263675451987
20645477 70 18340201878542584390
21119208 17 17240480303805280397
21293036 1 17989202663887431893
23402539 116 17967521373020074255
23402655 69 18269542872196007949
3248919 1 18337687342266550721
5084963 1 18187085044488097840
57812782 119 17894630348709394732

> <PUBCHEM_SHAPE_MULTIPOLES>
211.74
6.64
1.12
0.89
0.07
0
-0.01
0.02
0.09
-0.01
-0.01
-0.02
-0.01
-0.01

> <PUBCHEM_SHAPE_SELFOVERLAP>
397.648

> <PUBCHEM_SHAPE_VOLUME>
131.1

> <PUBCHEM_COORDINATE_TYPE>
2
5
10

$$$$
